sim_files/case300_002_ps.m
function ps = case300_002_ps

ps.baseMVA = 100.000000;

ps.bus = [...
%ID type Pd Qd Gs Bs area Vmag Vang basekV zone Vmax Vmin lam_P lam_Q mu_Vx mu_Vn locX locY 
 1 1 0 0 0 0 1 1.04206 2.969 115 1 1.06 0.94 0 0 0 0 2921 2110;
 2 1 0 0 0 0 1 1.0437 4.533 115 1 1.06 0.94 0 0 0 0 3132 2275;
 3 1 0 0 0 0 1 1.01493 2.842 230 1 1.06 0.94 0 0 0 0 2954 2298;
 4 1 0 0 0 0 1 1.05112 1.46 345 1 1.1 0.94 0 0 0 0 3058 2725;
 5 1 0 0 0 0 1 1.03325 1.738 115 1 1.06 0.94 0 0 0 0 3024 1985;
 6 1 0 0 0 0 1 1.04119 3.693 115 1 1.06 0.94 0 0 0 0 3011 2132;
 7 1 0 0 0 0 1 1.01008 2.431 230 1 1.06 0.94 0 0 0 0 2881 2016;
 8 2 0 0 0 0 1 1.0153 0.097 115 1 1.06 0.94 0 0 0 0 3334 2381;
 9 1 0 0 0 0 1 1.01402 0.184 115 1 1.06 0.94 0 0 0 0 3210 1993;
 10 2 0 0 0 0 1 1.0205 -1.819 230 1 1.06 0.94 0 0 0 0 3290 1929;
 11 1 0 0 0 0 1 1.01055 -0.143 115 1 1.06 0.94 0 0 0 0 3373 2090;
 12 1 0 0 0 0 1 1.01377 1.594 230 1 1.06 0.94 0 0 0 0 3132 1897;
 13 1 0 0 0 0 1 0.99991 -3.544 115 1 1.06 0.94 0 0 0 0 3493 1883;
 14 1 0 0 0 0 1 1.01061 -5.894 115 1 1.06 0.94 0 0 0 0 3394 2696;
 15 1 0 0 0 0 1 1.05263 -8.533 115 1 1.07 0.94 0 0 0 0 3460 3021;
 16 1 0 0 0 0 1 1.05774 -3.808 345 1 1.09 0.94 0 0 0 0 3175 3158;
 17 1 0 0 0 0 1 1.09475 -10.059 115 1 1.11 0.94 0 0 0 0 3339 2914;
 18 1 0 0 0 0 1 0.99337 -1.954 230 1 1.06 0.94 0 0 0 0 3308 2250;
 19 2 0 0 0 0 1 1.001 -5.972 115 1 1.06 0.94 0 0 0 0 3569 1697;
 20 1 0 0 0 0 1 0.98392 -1.648 230 1 1.06 0.94 0 0 0 0 3385 1896;
 21 1 0 0 0 0 1 0.99632 -5.459 115 1 1.06 0.94 0 0 0 0 3641 1525;
 22 1 0 0 0 0 1 1.05243 0.634 115 1 1.06 0.94 0 0 0 0 3617 1390;
 23 1 0 0 0 0 1 1.01751 3.409 230 1 1.06 0.94 0 0 0 0 3492 1616;
 24 1 0 0 0 0 1 1.03775 -0.714 115 1 1.06 0.94 0 0 0 0 3733 1245;
 25 1 0 0 0 0 1 1.00628 -4.274 115 1 1.06 0.87 0 0 0 0 3825 1316;
 26 1 0 0 0 0 1 0.97548 -8.16 115 1 1.06 0.87 0 0 0 0 3722 1500;
 27 1 0 0 0 0 1 1.04496 -10.891 115 1 1.06 0.94 0 0 0 0 3459 3518;
 28 1 0 0 0 0 1 1.06894 -7.355 345 1 1.08 0.94 0 0 0 0 3306 3585;
 29 1 0 0 0 0 1 0.98207 -20.669 115 1 1.06 0.94 0 0 0 0 3264 4816;
 30 1 0 0 0 0 1 1.01642 -17.66 230 1 1.06 0.94 0 0 0 0 3152 4662;
 31 1 0 0 0 0 1 1.03803 -9.943 115 1 1.06 0.94 0 0 0 0 3722 3225;
 32 1 0 0 0 0 1 1.04007 -11.383 115 1 1.06 0.94 0 0 0 0 3537 3476;
 33 1 0 0 0 0 1 1.07741 -6.295 345 1 1.09 0.94 0 0 0 0 3007 3628;
 34 1 0 0 0 0 1 1.04053 -11.466 115 1 1.06 0.94 0 0 0 0 3618 3426;
 35 1 0 0 0 0 1 1.04911 -9.502 115 1 1.06 0.94 0 0 0 0 3423 3417;
 36 1 0 0 0 0 1 1.07311 -6.938 345 1 1.09 0.94 0 0 0 0 3165 3626;
 37 1 0 0 0 0 1 1.02276 -14.591 115 1 1.06 0.94 0 0 0 0 3360 3730;
 38 1 0 0 0 0 1 1.03413 -14.757 115 1 1.06 0.94 0 0 0 0 3152 3971;
 39 1 0 0 0 0 1 1.04722 -12.071 230 1 1.06 0.94 0 0 0 0 2836 4025;
 40 1 0 0 0 0 1 1.06304 -9.752 345 1 1.08 0.94 0 0 0 0 3063 4117;
 41 1 0 0 0 0 1 0.99591 -20.15 115 1 1.06 0.92 0 0 0 0 3368 4208;
 42 1 0 0 0 0 1 1.01368 -13.916 115 1 1.06 0.94 0 0 0 0 3572 3615;
 43 1 0 0 0 0 1 1.05164 -1.486 115 1 1.06 0.94 0 0 0 0 3467 3314;
 44 1 0 0 0 0 1 1.03945 -6.659 115 1 1.06 0.94 0 0 0 0 3233 3431;
 45 1 0 0 0 0 1 1.01602 -9.546 115 1 1.06 0.94 0 0 0 0 2977 3549;
 46 1 0 0 0 0 1 1.01874 -15.169 115 1 1.06 0.94 0 0 0 0 3164 3792;
 47 1 0 0 0 0 1 1.02793 -13.601 115 1 1.06 0.94 0 0 0 0 2971 3826;
 48 1 0 0 0 0 1 1.03519 -9.333 115 1 1.06 0.94 0 0 0 0 2749 3703;
 49 1 0 0 0 0 1 1.05516 -3.36 115 1 1.07 0.94 0 0 0 0 2452 3741;
 50 1 0 0 0 0 1 1.0132 -1.834 115 1 1.07 0.94 0 0 0 0 2236 3810;
 51 1 0 0 0 0 1 1.00029 -1.306 115 1 1.06 0.94 0 0 0 0 2040 3823;
 52 1 0 0 0 0 1 1.04536 -6.721 230 1 1.06 0.94 0 0 0 0 2461 3811;
 53 1 0 0 0 0 1 1.00563 -0.489 115 1 1.06 0.94 0 0 0 0 1945 3708;
 54 1 0 0 0 0 1 1.02985 2.097 230 1 1.06 0.94 0 0 0 0 2101 3582;
 55 2 0 0 0 0 1 0.9583 -4.984 115 1 1.06 0.94 0 0 0 0 2244 3737;
 56 1 0 0 0 0 1 0.96288 -2.862 230 1 1.06 0.94 0 0 0 0 2094 3695;
 57 1 0 0 0 0 1 0.97057 -20.938 115 1 1.06 0.94 0 0 0 0 3730 5022;
 58 1 0 0 0 0 1 0.9958 -28.333 115 1 1.06 0.94 0 0 0 0 2975 4795;
 59 1 0 0 0 0 1 1.00543 -25.634 115 1 1.06 0.94 0 0 0 0 3163 4732;
 60 1 0 0 0 0 1 0.98285 -22.438 115 1 1.06 0.94 0 0 0 0 3216 4906;
 61 1 0 0 0 0 1 0.99435 -21.418 115 1 1.06 0.94 0 0 0 0 3314 4545;
 62 1 0 0 0 0 1 1.02144 -17.795 230 1 1.08 0.94 0 0 0 0 3053 4311;
 63 2 0 0 0 0 1 0.9632 -21.415 115 1 1.06 0.94 0 0 0 0 3352 4752;
 64 1 0 0 0 0 1 0.99476 -19.78 115 1 1.06 0.94 0 0 0 0 3374 4952;
 65 1 0 0 0 0 1 1.00325 -18.864 115 1 1.06 0.94 0 0 0 0 3520 4993;
 66 1 0 0 0 0 1 0.99499 -20.022 115 1 1.06 0.94 0 0 0 0 3524 4871;
 67 1 0 0 0 0 1 0.99516 -19.258 115 1 1.06 0.94 0 0 0 0 3501 5110;
 68 1 0 0 0 0 1 1.05308 -13.748 345 1 1.08 0.94 0 0 0 0 3019 4620;
 69 2 0 0 0 0 1 1.025 -15.079 115 1 1.06 0.94 0 0 0 0 3605 5083;
 70 1 0 0 0 0 1 0.99261 -16.497 230 1 1.06 0.94 0 0 0 0 3834 3168;
 71 1 0 0 0 0 1 1.00064 -13.756 230 1 1.06 0.94 0 0 0 0 3748 2830;
 72 1 0 0 0 0 1 1.00337 -8.906 230 1 1.06 0.94 0 0 0 0 3548 2542;
 73 1 0 0 0 0 1 1.03511 -16.152 230 1 1.06 0.94 0 0 0 0 3062 4503;
 74 1 0 0 0 0 1 1.03873 -10.789 115 1 1.06 0.94 0 0 0 0 3637 3037;
 75 1 0 0 0 0 1 1.03903 -8.773 115 1 1.06 0.94 0 0 0 0 3637 3141;
 76 2 0 0 0 0 1 1.052 -8.906 115 1 1.06 0.94 0 0 0 0 3707 2875;
 77 2 0 0 0 0 1 1.052 -1.109 115 1 1.06 0.94 0 0 0 0 3804 3264;
 78 1 0 0 0 0 1 0.9997 -10.315 115 1 1.06 0.94 0 0 0 0 3703 2722;
 79 1 0 0 0 0 1 1.02066 -12.192 115 1 1.06 0.94 0 0 0 0 3849 2909;
 80 2 0 0 0 0 1 1 -14.217 115 1 1.06 0.94 0 0 0 0 4064 2741;
 81 1 0 0 0 0 1 0.98955 -18.581 115 1 1.06 0.94 0 0 0 0 3909 3513;
 82 1 0 0 0 0 1 1.00824 -13.717 115 1 1.06 0.94 0 0 0 0 3970 2778;
 83 1 0 0 0 0 1 1.00442 -14.53 115 1 1.06 0.94 0 0 0 0 3965 2876;
 84 1 0 0 0 0 1 1.03046 -8.87 115 1 1.06 0.94 0 0 0 0 3894 3163;
 85 1 0 0 0 0 1 0.9998 -16.278 115 1 1.06 0.94 0 0 0 0 4052 3085;
 86 1 0 0 0 0 1 1.02284 -9.566 115 1 1.06 0.94 0 0 0 0 3906 3423;
 87 1 0 0 0 0 1 1.01579 -13.51 115 1 1.06 0.94 0 0 0 0 3775 3551;
 88 2 0 0 0 0 1 0.99 -18.538 115 1 1.06 0.94 0 0 0 0 4038 3316;
 89 1 0 0 0 0 1 0.9762 -23.88 115 1 1.06 0.94 0 0 0 0 3892 3855;
 90 1 0 0 0 0 1 0.97001 -22.833 115 1 1.06 0.93 0 0 0 0 3973 3678;
 91 1 0 0 0 0 1 0.9685 -26.309 115 1 1.06 0.94 0 0 0 0 4051 3908;
 92 1 0 0 0 0 1 0.98218 -22.698 115 1 1.06 0.92 0 0 0 0 3639 4041;
 93 1 0 0 0 0 1 0.97048 -26.157 115 1 1.06 0.94 0 0 0 0 4053 4126;
 94 1 0 0 0 0 1 0.98939 -12.352 115 2 1.06 0.94 0 0 0 0 2128 567;
 95 1 0 0 0 0 1 1.032 -10.059 115 2 1.06 0.94 0 0 0 0 1891 356;
 96 1 0 0 0 0 1 0.97624 -5.009 115 2 1.09 0.92 0 0 0 0 2035 540;
 97 1 0 0 0 0 1 0.97236 -4.447 115 2 1.06 0.92 0 0 0 0 2052 307;
 98 2 0 0 0 0 1 1.0435 -0.09 115 2 1.06 0.94 0 0 0 0 2093 169;
 99 1 0 0 0 0 1 1.00723 -6.317 115 2 1.06 0.94 0 0 0 0 1927 155;
 100 1 0 0 0 0 1 1.02083 -10.402 115 2 1.06 0.94 0 0 0 0 2133 351;
 101 1 0 0 0 0 1 0.99803 -13.833 115 2 1.06 0.94 0 0 0 0 2089 809;
 102 1 0 0 0 0 1 1.00731 -15.51 115 2 1.06 0.94 0 0 0 0 1968 782;
 103 2 0 0 0 0 1 1.0233 -10.749 115 2 1.06 0.94 0 0 0 0 1901 589;
 104 2 0 0 0 0 1 1.0103 -16.984 115 2 1.06 0.94 0 0 0 0 2012 1011;
 105 1 0 0 0 0 1 1.00989 -14.567 115 2 1.06 0.94 0 0 0 0 2003 1306;
 106 1 0 0 0 0 1 1.00978 -14.123 230 2 1.06 0.94 0 0 0 0 1882 1520;
 107 1 0 0 0 0 1 1.00612 -9.349 230 2 1.06 0.94 0 0 0 0 1994 1729;
 108 1 0 0 0 0 1 1.00636 -8.855 230 2 1.06 0.94 0 0 0 0 2010 1616;
 109 1 0 0 0 0 1 1.03502 0.853 230 2 1.06 0.94 0 0 0 0 2280 1778;
 110 1 0 0 0 0 1 1.00183 2.039 230 2 1.06 0.94 0 0 0 0 2583 1884;
 111 1 0 0 0 0 1 1.01767 -1.007 230 2 1.06 0.94 0 0 0 0 2163 1522;
 112 1 0 0 0 0 1 1.00001 -10.34 230 2 1.06 0.94 0 0 0 0 1747 1793;
 113 1 0 0 0 0 1 1.0367 -11.715 230 2 1.06 0.94 0 0 0 0 1630 1484;
 114 1 0 0 0 0 1 1.031 -10.409 230 2 1.06 0.94 0 0 0 0 1429 1596;
 115 1 0 0 0 0 1 1.05004 -2.344 230 2 1.06 0.94 0 0 0 0 1271 1763;
 116 1 0 0 0 0 1 1.04858 -6.968 230 2 1.06 0.94 0 0 0 0 1377 2026;
 117 2 0 0 0 0 1 1.055 -12.422 230 2 1.06 0.94 0 0 0 0 1062 2047;
 118 1 0 0 0 0 1 1.02774 -7.77 115 2 1.06 0.94 0 0 0 0 834 2557;
 119 1 0 0 0 0 1 1.04727 -8.045 230 2 1.06 0.94 0 0 0 0 1280 2449;
 120 2 0 0 0 0 1 1.051 -3.221 230 2 1.06 0.94 0 0 0 0 1097 2578;
 121 1 0 0 0 0 1 1.00421 -4.255 230 2 1.06 0.89 0 0 0 0 1291 2776;
 122 2 0 0 0 0 1 1.0435 4.978 230 2 1.06 0.94 0 0 0 0 1491 3027;
 123 1 0 0 0 0 1 1.02864 2.328 230 2 1.06 0.94 0 0 0 0 1788 3305;
 124 1 0 0 0 0 1 1.00584 -1.055 230 2 1.06 0.94 0 0 0 0 1339 2764;
 125 2 0 0 0 0 1 1.0528 2.152 230 2 1.06 0.94 0 0 0 0 1235 2609;
 126 2 0 0 0 0 1 1.0528 5.497 230 2 1.06 0.94 0 0 0 0 1175 2501;
 127 1 0 0 0 0 1 1.05913 1.128 230 2 1.08 0.82 0 0 0 0 1265 3085;
 128 2 0 0 0 0 1 1.0735 5.87 230 2 1.08 0.94 0 0 0 0 1391 2920;
 129 1 0 0 0 0 1 1.00324 2.247 230 2 1.06 0.94 0 0 0 0 2614 2034;
 130 1 0 0 0 0 1 1.01728 -0.07 230 2 1.06 0.94 0 0 0 0 2303 1592;
 131 2 0 0 0 0 1 1.0535 6.054 230 2 1.06 0.94 0 0 0 0 1052 1622;
 132 2 0 0 0 0 1 1.0435 6.224 230 2 1.06 0.94 0 0 0 0 837 1506;
 133 1 0 0 0 0 1 0.96574 -5.511 115 2 1.06 0.83 0 0 0 0 506 1374;
 134 1 0 0 0 0 1 1.02682 1.639 230 2 1.06 0.94 0 0 0 0 642 1640;
 135 2 0 0 0 0 1 0.963 0.806 115 2 1.06 0.94 0 0 0 0 506 1513;
 136 1 0 0 0 0 1 1.01151 -11.936 230 2 1.06 0.94 0 0 0 0 2049 1022;
 137 1 0 0 0 0 1 1.01882 -11.409 230 2 1.06 0.94 0 0 0 0 1962 1017;
 138 1 0 0 0 0 1 1.01732 -9.903 230 2 1.08 0.94 0 0 0 0 2022 802;
 139 1 0 0 0 0 1 1.01049 -11.031 230 2 1.06 0.94 0 0 0 0 1899 794;
 140 1 0 0 0 0 1 1.03896 4.314 230 2 1.06 0.94 0 0 0 0 682 1513;
 141 1 0 0 0 0 1 1.03372 8.078 230 2 1.06 0.94 0 0 0 0 551 1775;
 142 1 0 0 0 0 1 1.05477 -2.509 230 2 1.15 0.94 0 0 0 0 1084 1901;
 143 1 0 0 0 0 1 1.01391 4.149 230 2 1.06 0.94 0 0 0 0 797 1796;
 144 1 0 0 0 0 1 1.03201 11.638 230 2 1.06 0.94 0 0 0 0 330 1746;
 145 1 0 0 0 0 1 1.02029 13.451 230 2 1.06 0.94 0 0 0 0 142 1718;
 146 1 0 0 0 0 1 0.97268 -11.821 230 2 1.06 0.86 0 0 0 0 2107 1658;
 147 1 0 0 0 0 1 1.00612 -9.372 230 2 1.06 0.94 0 0 0 0 1998 1708;
 148 1 0 0 0 0 1 0.9886 -11.344 230 2 1.06 0.94 0 0 0 0 1916 1567;
 149 2 0 0 0 0 1 0.929 -2.821 115 2 1.06 0.92 0 0 0 0 2275 1449;
 150 2 0 0 0 0 1 0.9829 -12.674 115 2 1.06 0.94 0 0 0 0 1652 1728;
 151 1 0 0 0 0 1 1.03647 -9.09 115 2 1.06 0.94 0 0 0 0 781 2710;
 152 1 0 0 0 0 1 0.99293 -13.32 115 2 1.06 0.92 0 0 0 0 861 2845;
 153 1 0 0 0 0 1 1.06557 -5.572 115 2 1.07 0.94 0 0 0 0 916 2693;
 154 1 0 0 0 0 1 0.97973 -6.738 115 2 1.06 0.87 0 0 0 0 1052 2888;
 155 2 0 0 0 0 1 1.0522 6.108 115 2 1.06 0.94 0 0 0 0 892 2981;
 156 2 0 0 0 0 1 1.0077 1.446 115 2 1.06 0.94 0 0 0 0 910 3129;
 157 1 0 0 0 0 1 0.94543 -6.018 115 2 1.06 0.78 0 0 0 0 1088 3109;
 158 1 0 0 0 0 1 0.98189 -8.295 115 2 1.06 0.86 0 0 0 0 1101 3044;
 159 1 0 0 0 0 1 0.99052 -2.526 115 2 1.06 0.94 0 0 0 0 1201 2940;
 160 1 0 0 0 0 1 1.05254 -7.011 230 2 1.06 0.94 0 0 0 0 1189 2041;
 161 1 0 0 0 0 1 1.05392 -8.655 230 2 1.07 0.94 0 0 0 0 1041 2485;
 162 1 0 0 0 0 1 0.97196 4.31 115 2 1.06 0.94 0 0 0 0 666 1398;
 163 1 0 0 0 0 1 1.047 -11.142 230 2 1.06 0.94 0 0 0 0 1521 1328;
 164 2 0 0 0 0 1 1.0522 -9.858 230 2 1.06 0.94 0 0 0 0 1440 1212;
 165 2 0 0 0 0 1 1.065 -3.979 230 2 1.07 0.94 0 0 0 0 1280 1943;
 166 2 0 0 0 0 1 1.065 -4.556 230 2 1.07 0.94 0 0 0 0 1060 1982;
 167 1 0 0 0 0 1 1.05392 -6.505 230 2 1.06 0.94 0 0 0 0 1192 1987;
 168 1 0 0 0 0 1 1.00206 -20.27 66 3 1.06 0.94 0 0 0 0 4205 5292;
 169 2 0 0 0 0 1 1.0551 -12.747 345 3 1.06 0.94 0 0 0 0 2637 6319;
 170 2 0 0 0 0 1 1.0435 -2.836 230 3 1.06 0.94 0 0 0 0 2087 6720;
 171 1 0 0 0 0 1 1.01498 -12.183 230 3 1.06 0.94 0 0 0 0 2023 6684;
 172 1 0 0 0 0 1 0.99924 -21.9 66 3 1.06 0.94 0 0 0 0 4262 5153;
 173 1 0 0 0 0 1 1.06488 -12.598 345 3 1.08 0.94 0 0 0 0 2923 4981;
 174 1 0 0 0 0 1 1.04483 -14.186 345 3 1.08 0.94 0 0 0 0 3058 5034;
 175 1 0 0 0 0 1 0.97387 -18.207 115 3 1.06 0.92 0 0 0 0 4126 5314;
 176 1 0 0 0 0 1 0.99317 -16.943 115 3 1.06 0.94 0 0 0 0 3891 5272;
 177 2 0 0 0 0 1 1.015 -13.779 115 3 1.06 0.94 0 0 0 0 3889 5370;
 178 1 0 0 0 0 1 0.953 -19.293 115 3 1.06 0.86 0 0 0 0 4208 5670;
 179 1 0 0 0 0 1 0.95584 -19.104 115 3 1.06 0.91 0 0 0 0 4147 5781;
 180 1 0 0 0 0 1 0.98043 -23.704 66 1 1.06 0.78 0 0 0 0 3959 5058;
 181 1 0 0 0 0 1 1.00572 -17.727 66 3 1.06 0.94 0 0 0 0 3773 5313;
 182 1 0 0 0 0 1 1.00489 -15.67 115 3 1.06 0.94 0 0 0 0 3740 5353;
 183 1 0 0 0 0 1 0.96856 -23.992 66 3 1.06 0.88 0 0 0 0 4170 5095;
 184 1 0 0 0 0 1 0.98646 -23.059 66 3 1.06 0.92 0 0 0 0 4277 4963;
 185 1 0 0 0 0 1 0.99554 -24.32 66 3 1.06 0.94 0 0 0 0 4237 4752;
 186 1 0 0 0 0 1 1.00573 -24.714 66 1 1.06 0.94 0 0 0 0 4161 4439;
 187 1 0 0 0 0 1 0.9991 -21.48 66 3 1.06 0.94 0 0 0 0 4256 5030;
 188 1 0 0 0 0 1 1.00367 -19.789 66 3 1.06 0.92 0 0 0 0 4077 5401;
 189 1 0 0 0 0 1 0.97977 -17.451 115 3 1.06 0.93 0 0 0 0 4113 5512;
 190 1 0 0 0 0 1 1.00574 -16.748 115 3 1.06 0.94 0 0 0 0 3647 5190;
 191 1 0 0 0 0 1 1.01829 -15.788 138 3 1.06 0.94 0 0 0 0 3332 5267;
 192 2 0 0 0 0 1 1.01 -7.083 16.5 3 1.06 0.94 0 0 0 0 3564 5988;
 193 1 0 0 0 0 1 0.99434 -10.502 138 3 1.06 0.94 0 0 0 0 3544 5850;
 194 1 0 0 0 0 1 0.99018 -12.185 138 3 1.06 0.94 0 0 0 0 3356 5588;
 195 1 0 0 0 0 1 0.97275 -14.945 138 3 1.06 0.92 0 0 0 0 3098 5615;
 196 1 0 0 0 0 1 1.02271 -14.551 138 3 1.06 0.94 0 0 0 0 2841 5582;
 197 1 0 0 0 0 1 1.00928 -14.968 138 3 1.06 0.94 0 0 0 0 2730 5535;
 198 1 0 0 0 0 1 1.05841 -13.406 345 3 1.07 0.94 0 0 0 0 2867 5342;
 199 2 0 0 0 0 1 1.008 -14.217 138 3 1.06 0.94 0 0 0 0 2607 5720;
 200 2 0 0 0 0 1 1 -15.736 138 3 1.06 0.94 0 0 0 0 2439 5929;
...
];

ps.branch = [...
%from to R X B rateA rateB rateC tap shift status 
 31 266 6e-05 0.00046 0 80 88 120 1.0082 0 1 0 0 0 0 0 0 0 0 0 0 0;
 266 270 0.0008 0.00348 0 50 55 75 1 0 1 0 0 0 0 0 0 0 0 0 0 0;
 266 271 0.02439 0.43682 0 50 55 75 0.9668 0 1 0 0 0 0 0 0 0 0 0 0 0;
 266 273 0.03624 0.64898 0 50 55 75 0.9796 0 1 0 0 0 0 0 0 0 0 0 0 0;
 270 292 0.01578 0.37486 0 50 55 75 1.0435 0 1 0 0 0 0 0 0 0 0 0 0 0;
 270 293 0.01578 0.37486 0 50 55 75 0.9391 0 1 0 0 0 0 0 0 0 0 0 0 0;
 270 294 0.01602 0.38046 0 50 55 75 1.0435 0 1 0 0 0 0 0 0 0 0 0 0 0;
 270 295 0 0.152 0 60 66 90 1.0435 0 1 0 0 0 0 0 0 0 0 0 0 0;
 270 296 0 0.8 0 50 55 75 1.0435 0 1 0 0 0 0 0 0 0 0 0 0 0;
 271 272 0.05558 0.24666 0 50 55 75 1 0 1 0 0 0 0 0 0 0 0 0 0 0;
 271 268 0.11118 0.49332 0 50 55 75 1 0 1 0 0 0 0 0 0 0 0 0 0 0;
 271 268 0.11118 0.49332 0 50 55 75 1 0 1 0 0 0 0 0 0 0 0 0 0 0;
 273 267 0.07622 0.43286 0 50 55 75 1 0 1 0 0 0 0 0 0 0 0 0 0 0;
 273 267 0.07622 0.43286 0 50 55 75 1 0 1 0 0 0 0 0 0 0 0 0 0 0;
 267 274 0.0537 0.07026 0 50 55 75 1 0 1 0 0 0 0 0 0 0 0 0 0 0;
 274 276 1.1068 0.95278 0 50 55 75 1 0 1 0 0 0 0 0 0 0 0 0 0 0;
 274 275 0.44364 2.8152 0 50 55 75 1 0 1 0 0 0 0 0 0 0 0 0 0 0;
 267 277 0.50748 3.2202 0 50 55 75 1 0 1 0 0 0 0 0 0 0 0 0 0 0;
 276 278 0.66688 3.944 0 50 55 75 1 0 1 0 0 0 0 0 0 0 0 0 0 0;
 276 279 0.6113 3.6152 0 50 55 75 1 0 1 0 0 0 0 0 0 0 0 0 0 0;
 272 297 0.4412 2.9668 0 50 55 75 1 0 1 0 0 0 0 0 0 0 0 0 0 0;
 272 298 0.30792 2.057 0 50 55 75 1 0 1 0 0 0 0 0 0 0 0 0 0 0;
 272 268 0.0558 0.24666 0 50 55 75 1 0 1 0 0 0 0 0 0 0 0 0 0 0;
 268 280 0.73633 4.6724 0 50 55 75 1 0 1 0 0 0 0 0 0 0 0 0 0 0;
 268 281 0.76978 4.8846 0 50 55 75 1 0 1 0 0 0 0 0 0 0 0 0 0 0;
 268 282 0.75732 4.8056 0 50 55 75 1 0 1 0 0 0 0 0 0 0 0 0 0 0;
 268 291 0.07378 0.06352 0 50 55 75 1 0 1 0 0 0 0 0 0 0 0 0 0 0;
 291 269 0.03832 0.02894 0 50 55 75 1 0 1 0 0 0 0 0 0 0 0 0 0 0;
 269 288 0.36614 2.456 0 50 55 75 1 0 1 0 0 0 0 0 0 0 0 0 0 0;
 269 289 1.0593 5.4536 0 50 55 75 1 0 1 0 0 0 0 0 0 0 0 0 0 0;
 269 290 0.1567 1.6994 0 50 55 75 1 0 1 0 0 0 0 0 0 0 0 0 0 0;
 268 283 0.13006 1.3912 0 50 55 75 1 0 1 0 0 0 0 0 0 0 0 0 0 0;
 268 284 0.54484 3.4572 0 50 55 75 1 0 1 0 0 0 0 0 0 0 0 0 0 0;
 268 285 0.15426 1.6729 0 50 55 75 1 0 1 0 0 0 0 0 0 0 0 0 0 0;
 268 286 0.3849 2.5712 0 50 55 75 1 0 1 0 0 0 0 0 0 0 0 0 0 0;
 268 287 0.4412 2.9668 0 50 55 75 1 0 1 0 0 0 0 0 0 0 0 0 0 0;
 273 299 0.23552 0.99036 0 50 55 75 1 0 1 0 0 0 0 0 0 0 0 0 0 0;
 294 300 0 0.75 0 50 55 75 0.9583 0 1 0 0 0 0 0 0 0 0 0 0 0;
 1 5 0.001 0.006 0 460 506 690 1 0 1 0 0 0 0 0 0 0 0 0 0 0;
 2 6 0.001 0.009 0 330 363 495 1 0 1 0 0 0 0 0 0 0 0 0 0 0;
 2 8 0.006 0.027 0.054 500 550 750 1 0 1 0 0 0 0 0 0 0 0 0 0 0;
 3 7 0 0.003 0 600 660 900 1 0 1 0 0 0 0 0 0 0 0 0 0 0;
 3 18 0.008 0.069 0.139 320 352 480 1 0 1 0 0 0 0 0 0 0 0 0 0 0;
 3 129 0.001 0.007 0 370 407 555 1 0 1 0 0 0 0 0 0 0 0 0 0 0;
 4 16 0.002 0.019 1.127 710 781 1065 1 0 1 0 0 0 0 0 0 0 0 0 0 0;
 5 9 0.006 0.029 0.018 280 308 420 1 0 1 0 0 0 0 0 0 0 0 0 0 0;
 7 12 0.001 0.009 0.07 280 308 420 1 0 1 0 0 0 0 0 0 0 0 0 0 0;
 7 110 0.001 0.007 0.014 310 341 465 1 0 1 0 0 0 0 0 0 0 0 0 0 0;
 8 11 0.013 0.0595 0.033 180 198 270 1 0 1 0 0 0 0 0 0 0 0 0 0 0;
 8 14 0.013 0.042 0.081 520 572 780 1 0 1 0 0 0 0 0 0 0 0 0 0 0;
 9 11 0.006 0.027 0.013 200 220 300 1 0 1 0 0 0 0 0 0 0 0 0 0 0;
 11 13 0.008 0.034 0.018 590 649 885 1 0 1 0 0 0 0 0 0 0 0 0 0 0;
 12 20 0.002 0.015 0.118 560 616 840 1 0 1 0 0 0 0 0 0 0 0 0 0 0;
 13 19 0.006 0.034 0.016 540 594 810 1 0 1 0 0 0 0 0 0 0 0 0 0 0;
 14 15 0.014 0.042 0.097 400 440 600 1 0 1 0 0 0 0 0 0 0 0 0 0 0;
 15 31 0.065 0.248 0.121 90 99 135 1 0 1 0 0 0 0 0 0 0 0 0 0 0;
 15 74 0.099 0.248 0.035 50 55 75 1 0 1 0 0 0 0 0 0 0 0 0 0 0;
 15 75 0.096 0.363 0.048 50 55 75 1 0 1 0 0 0 0 0 0 0 0 0 0 0;
 16 36 0.002 0.022 1.28 430 473 645 1 0 1 0 0 0 0 0 0 0 0 0 0 0;
 18 20 0.002 0.018 0.036 230 253 345 1 0 1 0 0 0 0 0 0 0 0 0 0 0;
 18 72 0.013 0.08 0.151 270 297 405 1 0 1 0 0 0 0 0 0 0 0 0 0 0;
 19 21 0.016 0.033 0.015 230 253 345 1 0 1 0 0 0 0 0 0 0 0 0 0 0;
 19 26 0.069 0.186 0.098 130 143 195 1 0 1 0 0 0 0 0 0 0 0 0 0 0;
 20 23 0.004 0.034 0.28 370 407 555 1 0 1 0 0 0 0 0 0 0 0 0 0 0;
 21 22 0.052 0.111 0.05 290 319 435 1 0 1 0 0 0 0 0 0 0 0 0 0 0;
 22 24 0.019 0.039 0.018 130 143 195 1 0 1 0 0 0 0 0 0 0 0 0 0 0;
 23 231 0.007 0.068 0.134 120 132 180 1 0 1 0 0 0 0 0 0 0 0 0 0 0;
 24 25 0.036 0.071 0.034 160 176 240 1 0 1 0 0 0 0 0 0 0 0 0 0 0;
 25 26 0.045 0.12 0.065 130 143 195 1 0 1 0 0 0 0 0 0 0 0 0 0 0;
 25 232 0.043 0.13 0.014 50 55 75 1 0 1 0 0 0 0 0 0 0 0 0 0 0;
 27 28 0 0.063 0 200 220 300 1 0 1 0 0 0 0 0 0 0 0 0 0 0;
 27 32 0.0025 0.012 0.013 170 187 255 1 0 1 0 0 0 0 0 0 0 0 0 0 0;
 27 34 0.006 0.029 0.02 80 88 120 1 0 1 0 0 0 0 0 0 0 0 0 0 0;
 27 35 0.007 0.043 0.026 100 110 150 1 0 1 0 0 0 0 0 0 0 0 0 0 0;
 28 36 0.001 0.008 0.042 200 220 300 1 0 1 0 0 0 0 0 0 0 0 0 0 0;
 29 60 0.012 0.06 0.008 100 110 150 1 0 1 0 0 0 0 0 0 0 0 0 0 0;
 29 63 0.006 0.014 0.002 230 253 345 1 0 1 0 0 0 0 0 0 0 0 0 0 0;
 29 64 0.01 0.029 0.003 120 132 180 1 0 1 0 0 0 0 0 0 0 0 0 0 0;
 30 73 0.004 0.027 0.043 260 286 390 1 0 1 0 0 0 0 0 0 0 0 0 0 0;
 31 32 0.008 0.047 0.008 100 110 150 1 0 1 0 0 0 0 0 0 0 0 0 0 0;
 31 34 0.022 0.064 0.007 70 77 105 1 0 1 0 0 0 0 0 0 0 0 0 0 0;
 31 35 0.01 0.036 0.02 120 132 180 1 0 1 0 0 0 0 0 0 0 0 0 0 0;
 31 43 0.017 0.081 0.048 260 286 390 1 0 1 0 0 0 0 0 0 0 0 0 0 0;
 31 74 0.102 0.254 0.033 50 55 75 1 0 1 0 0 0 0 0 0 0 0 0 0 0;
 31 75 0.047 0.127 0.016 60 66 90 1 0 1 0 0 0 0 0 0 0 0 0 0 0;
 32 35 0.008 0.037 0.02 160 176 240 1 0 1 0 0 0 0 0 0 0 0 0 0 0;
 32 37 0.032 0.087 0.04 250 275 375 1 0 1 0 0 0 0 0 0 0 0 0 0 0;
 33 36 0.0006 0.0064 0.404 410 451 615 1 0 1 0 0 0 0 0 0 0 0 0 0 0;
 34 42 0.026 0.154 0.022 80 88 120 1 0 1 0 0 0 0 0 0 0 0 0 0 0;
 35 36 0 0.029 0 340 374 510 1 0 1 0 0 0 0 0 0 0 0 0 0 0;
 35 43 0.065 0.191 0.02 180 198 270 1 0 1 0 0 0 0 0 0 0 0 0 0 0;
 35 44 0.031 0.089 0.036 150 165 225 1 0 1 0 0 0 0 0 0 0 0 0 0 0;
 36 40 0.002 0.014 0.806 530 583 795 1 0 1 0 0 0 0 0 0 0 0 0 0 0;
 37 38 0.026 0.072 0.035 180 198 270 1 0 1 0 0 0 0 0 0 0 0 0 0 0;
 37 42 0.095 0.262 0.032 50 55 75 1 0 1 0 0 0 0 0 0 0 0 0 0 0;
 37 46 0.013 0.039 0.016 70 77 105 1 0 1 0 0 0 0 0 0 0 0 0 0 0;
 38 41 0.027 0.084 0.039 180 198 270 1 0 1 0 0 0 0 0 0 0 0 0 0 0;
 38 47 0.028 0.084 0.037 120 132 180 1 0 1 0 0 0 0 0 0 0 0 0 0 0;
 39 52 0.007 0.041 0.312 410 451 615 1 0 1 0 0 0 0 0 0 0 0 0 0 0;
 39 62 0.009 0.054 0.411 340 374 510 1 0 1 0 0 0 0 0 0 0 0 0 0 0;
 40 68 0.005 0.042 0.69 330 363 495 1 0 1 0 0 0 0 0 0 0 0 0 0 0;
 41 61 0.052 0.145 0.073 90 99 135 1 0 1 0 0 0 0 0 0 0 0 0 0 0;
 41 92 0.043 0.118 0.013 60 66 90 1 0 1 0 0 0 0 0 0 0 0 0 0 0;
 42 87 0.025 0.062 0.007 50 55 75 1 0 1 0 0 0 0 0 0 0 0 0 0 0;
 43 44 0.031 0.094 0.043 220 242 330 1 0 1 0 0 0 0 0 0 0 0 0 0 0;
 44 45 0.037 0.109 0.049 130 143 195 1 0 1 0 0 0 0 0 0 0 0 0 0 0;
 45 48 0.027 0.08 0.036 80 88 120 1 0 1 0 0 0 0 0 0 0 0 0 0 0;
 46 47 0.025 0.073 0.035 70 77 105 1 0 1 0 0 0 0 0 0 0 0 0 0 0;
 47 48 0.035 0.103 0.047 140 154 210 1 0 1 0 0 0 0 0 0 0 0 0 0 0;
 48 49 0.065 0.169 0.082 150 165 225 1 0 1 0 0 0 0 0 0 0 0 0 0 0;
 49 50 0.046 0.08 0.036 120 132 180 1 0 1 0 0 0 0 0 0 0 0 0 0 0;
 49 55 0.159 0.537 0.071 50 55 75 1 0 1 0 0 0 0 0 0 0 0 0 0 0;
 50 51 0.009 0.026 0.005 130 143 195 1 0 1 0 0 0 0 0 0 0 0 0 0 0;
 51 53 0.002 0.013 0.015 230 253 345 1 0 1 0 0 0 0 0 0 0 0 0 0 0;
 52 54 0.009 0.065 0.485 420 462 630 1 0 1 0 0 0 0 0 0 0 0 0 0 0;
 54 56 0.016 0.105 0.203 180 198 270 1 0 1 0 0 0 0 0 0 0 0 0 0 0;
 54 123 0.001 0.007 0.013 280 308 420 1 0 1 0 0 0 0 0 0 0 0 0 0 0;
 55 236 0.0265 0.172 0.026 120 132 180 1 0 1 0 0 0 0 0 0 0 0 0 0 0;
 57 190 0.051 0.232 0.028 50 55 75 1 0 1 0 0 0 0 0 0 0 0 0 0 0;
 57 66 0.051 0.157 0.023 60 66 90 1 0 1 0 0 0 0 0 0 0 0 0 0 0;
 58 59 0.032 0.1 0.062 100 110 150 1 0 1 0 0 0 0 0 0 0 0 0 0 0;
 58 237 0.02 0.1234 0.028 50 55 75 1 0 1 0 0 0 0 0 0 0 0 0 0 0;
 59 60 0.036 0.131 0.068 120 132 180 1 0 1 0 0 0 0 0 0 0 0 0 0 0;
 59 61 0.034 0.099 0.047 120 132 180 1 0 1 0 0 0 0 0 0 0 0 0 0 0;
 60 64 0.018 0.087 0.011 90 99 135 1 0 1 0 0 0 0 0 0 0 0 0 0 0;
 60 238 0.0256 0.193 0 50 55 75 1 0 1 0 0 0 0 0 0 0 0 0 0 0;
 61 63 0.021 0.057 0.03 140 154 210 1 0 1 0 0 0 0 0 0 0 0 0 0 0;
 61 66 0.018 0.052 0.018 260 286 390 1 0 1 0 0 0 0 0 0 0 0 0 0 0;
 62 73 0.004 0.027 0.05 250 275 375 1 0 1 0 0 0 0 0 0 0 0 0 0 0;
 62 240 0.0286 0.2013 0.379 60 66 90 1 0 1 0 0 0 0 0 0 0 0 0 0 0;
 63 64 0.016 0.043 0.004 170 187 255 1 0 1 0 0 0 0 0 0 0 0 0 0 0;
 64 65 0.001 0.006 0.007 390 429 585 1 0 1 0 0 0 0 0 0 0 0 0 0 0;
 64 67 0.014 0.07 0.038 70 77 105 1 0 1 0 0 0 0 0 0 0 0 0 0 0;
 64 239 0.0891 0.2676 0.029 50 55 75 1 0 1 0 0 0 0 0 0 0 0 0 0 0;
 64 241 0.0782 0.2127 0.022 50 55 75 1 0 1 0 0 0 0 0 0 0 0 0 0 0;
 65 66 0.006 0.022 0.011 370 407 555 1 0 1 0 0 0 0 0 0 0 0 0 0 0;
 65 69 0 0.036 0 390 429 585 1 0 1 0 0 0 0 0 0 0 0 0 0 0;
 66 190 0.099 0.375 0.051 50 55 75 1 0 1 0 0 0 0 0 0 0 0 0 0 0;
 67 190 0.022 0.107 0.058 100 110 150 1 0 1 0 0 0 0 0 0 0 0 0 0 0;
 68 173 0.0035 0.033 0.53 130 143 195 1 0 1 0 0 0 0 0 0 0 0 0 0 0;
 68 174 0.0035 0.033 0.53 130 143 195 1 0 1 0 0 0 0 0 0 0 0 0 0 0;
 70 71 0.008 0.064 0.128 120 132 180 1 0 1 0 0 0 0 0 0 0 0 0 0 0;
 71 72 0.012 0.093 0.183 170 187 255 1 0 1 0 0 0 0 0 0 0 0 0 0 0;
 71 234 0.006 0.048 0.092 50 55 75 1 0 1 0 0 0 0 0 0 0 0 0 0 0;
 74 76 0.047 0.119 0.014 80 88 120 1 0 1 0 0 0 0 0 0 0 0 0 0 0;
 75 77 0.032 0.174 0.024 140 154 210 1 0 1 0 0 0 0 0 0 0 0 0 0 0;
 76 78 0.1 0.253 0.031 60 66 90 1 0 1 0 0 0 0 0 0 0 0 0 0 0;
 76 79 0.022 0.077 0.039 120 132 180 1 0 1 0 0 0 0 0 0 0 0 0 0 0;
 77 84 0.019 0.144 0.017 220 242 330 1 0 1 0 0 0 0 0 0 0 0 0 0 0;
 77 86 0.017 0.092 0.012 250 275 375 1 0 1 0 0 0 0 0 0 0 0 0 0 0;
 78 79 0.278 0.427 0.043 50 55 75 1 0 1 0 0 0 0 0 0 0 0 0 0 0;
 79 82 0.022 0.053 0.007 90 99 135 1 0 1 0 0 0 0 0 0 0 0 0 0 0;
 79 83 0.038 0.092 0.012 80 88 120 1 0 1 0 0 0 0 0 0 0 0 0 0 0;
 79 84 0.048 0.122 0.015 90 99 135 1 0 1 0 0 0 0 0 0 0 0 0 0 0;
 80 82 0.024 0.064 0.007 50 55 75 1 0 1 0 0 0 0 0 0 0 0 0 0 0;
 80 83 0.034 0.121 0.015 50 55 75 1 0 1 0 0 0 0 0 0 0 0 0 0 0;
 81 87 0.053 0.135 0.017 100 110 150 1 0 1 0 0 0 0 0 0 0 0 0 0 0;
 81 88 0.002 0.004 0.002 60 66 90 1 0 1 0 0 0 0 0 0 0 0 0 0 0;
 81 89 0.045 0.354 0.044 50 55 75 1 0 1 0 0 0 0 0 0 0 0 0 0 0;
 81 90 0.05 0.174 0.022 80 88 120 1 0 1 0 0 0 0 0 0 0 0 0 0 0;
 82 83 0.016 0.038 0.004 70 77 105 1 0 1 0 0 0 0 0 0 0 0 0 0 0;
 83 85 0.043 0.064 0.027 80 88 120 1 0 1 0 0 0 0 0 0 0 0 0 0 0;
 84 86 0.019 0.062 0.008 140 154 210 1 0 1 0 0 0 0 0 0 0 0 0 0 0;
 85 88 0.076 0.13 0.044 70 77 105 1 0 1 0 0 0 0 0 0 0 0 0 0 0;
 85 233 0.044 0.124 0.015 50 55 75 1 0 1 0 0 0 0 0 0 0 0 0 0 0;
 86 87 0.012 0.088 0.011 120 132 180 1 0 1 0 0 0 0 0 0 0 0 0 0 0;
 86 90 0.157 0.4 0.047 80 88 120 1 0 1 0 0 0 0 0 0 0 0 0 0 0;
 88 235 0.074 0.208 0.026 50 55 75 1 0 1 0 0 0 0 0 0 0 0 0 0 0;
 89 90 0.07 0.184 0.021 50 55 75 1 0 1 0 0 0 0 0 0 0 0 0 0 0;
 89 92 0.1 0.274 0.031 50 55 75 1 0 1 0 0 0 0 0 0 0 0 0 0 0;
 89 93 0.109 0.393 0.036 50 55 75 1 0 1 0 0 0 0 0 0 0 0 0 0 0;
 90 91 0.142 0.404 0.05 50 55 75 1 0 1 0 0 0 0 0 0 0 0 0 0 0;
 91 93 0.017 0.042 0.006 50 55 75 1 0 1 0 0 0 0 0 0 0 0 0 0 0;
 94 101 0.0036 0.0199 0.004 500 550 750 1 0 1 0 0 0 0 0 0 0 0 0 0 0;
 95 99 0.002 0.1049 0.001 240 264 360 1 0 1 0 0 0 0 0 0 0 0 0 0 0;
 96 97 0.0001 0.0018 0.017 670 737 1005 1 0 1 0 0 0 0 0 0 0 0 0 0 0;
 97 98 0 0.0271 0 660 726 990 1 0 1 0 0 0 0 0 0 0 0 0 0 0;
 97 245 0 0.6163 0 60 66 90 1 0 1 0 0 0 0 0 0 0 0 0 0 0;
 245 99 0 -0.3697 0 60 66 90 1 0 1 0 0 0 0 0 0 0 0 0 0 0;
 97 100 0.0022 0.2915 0 90 99 135 1 0 1 0 0 0 0 0 0 0 0 0 0 0;
 98 99 0 0.0339 0 640 704 960 1 0 1 0 0 0 0 0 0 0 0 0 0 0;
 98 100 0 0.0582 0 520 572 780 1 0 1 0 0 0 0 0 0 0 0 0 0 0;
 101 102 0.0808 0.2344 0.029 50 55 75 1 0 1 0 0 0 0 0 0 0 0 0 0 0;
 101 104 0.0965 0.3669 0.054 50 55 75 1 0 1 0 0 0 0 0 0 0 0 0 0 0;
 102 103 0.036 0.1076 0.117 120 132 180 1 0 1 0 0 0 0 0 0 0 0 0 0 0;
 102 104 0.0476 0.1414 0.149 60 66 90 1 0 1 0 0 0 0 0 0 0 0 0 0 0;
 104 105 0.0006 0.0197 0 420 462 630 1 0 1 0 0 0 0 0 0 0 0 0 0 0;
 105 106 0.0059 0.0405 0.25 130 143 195 1 0 1 0 0 0 0 0 0 0 0 0 0 0;
 105 108 0.0115 0.1106 0.185 150 165 225 1 0 1 0 0 0 0 0 0 0 0 0 0 0;
 105 111 0.0198 0.1688 0.321 180 198 270 1 0 1 0 0 0 0 0 0 0 0 0 0 0;
 105 136 0.005 0.05 0.33 180 198 270 1 0 1 0 0 0 0 0 0 0 0 0 0 0;
 105 137 0.0077 0.0538 0.335 270 297 405 1 0 1 0 0 0 0 0 0 0 0 0 0 0;
 105 148 0.0165 0.1157 0.171 90 99 135 1 0 1 0 0 0 0 0 0 0 0 0 0 0;
 106 107 0.0059 0.0577 0.095 240 264 360 1 0 1 0 0 0 0 0 0 0 0 0 0 0;
 106 113 0.0049 0.0336 0.208 470 517 705 1 0 1 0 0 0 0 0 0 0 0 0 0 0;
 106 147 0.0059 0.0577 0.095 240 264 360 1 0 1 0 0 0 0 0 0 0 0 0 0 0;
 107 109 0.0078 0.0773 0.126 320 352 480 1 0 1 0 0 0 0 0 0 0 0 0 0 0;
 107 112 0.0026 0.0193 0.03 280 308 420 1 0 1 0 0 0 0 0 0 0 0 0 0 0;
 108 109 0.0076 0.0752 0.122 320 352 480 1 0 1 0 0 0 0 0 0 0 0 0 0 0;
 108 112 0.0021 0.0186 0.03 270 297 405 1 0 1 0 0 0 0 0 0 0 0 0 0 0;
...
];

ps.gen = [...
%bus Pg Qg Qmax Qmin Vsp mBase status Pmax Pmin mu_Px mu_Pn mu_Qx mu_Qn type cost 
 8 0 -64.6449 100 -100 1.0153 100 1 100 0 0 0 0 0 2 0 0;
 10 0 -18.6391 100 -100 1.0205 100 1 100 0 0 0 0 0 2 0 0;
 19 -0 -29.8194 600 -100 1.001 100 1 100 0 0 0 0 0 2 0 0;
 55 -0 -103.35 25 -200 0.9583 100 1 100 0 0 0 0 0 2 0 0;
 63 0 -54.3719 100 -100 0.9632 100 1 100 0 0 0 0 0 2 0 0;
 69 416.315 150.113 240 -240 1.025 100 1 500 0 0 0 0 0 2 0 0;
 76 150.161 31.6262 100 -100 1.052 100 1 255 0 0 0 0 0 2 0 0;
 77 374.026 18.0443 153 -153 1.052 100 1 400 0 0 0 0 0 2 0 0;
 80 53.0982 -12.3687 100 -100 1 100 1 168 0 0 0 0 0 2 0 0;
 88 135.604 1.7277 100 -100 0.99 100 1 217 0 0 0 0 0 2 0 0;
 98 1979.8 994.761 1500 -500 1.0435 100 1 2030 0 0 0 0 0 2 0 0;
 103 280.983 35.7292 120 -60 1.0233 100 1 340 0 0 0 0 0 2 0 0;
 104 -0 105.997 200 -25 1.0103 100 1 100 0 0 0 0 0 2 0 0;
 117 0 237.552 400 -125 1.055 100 1 100 0 0 0 0 0 2 0 0;
 120 269.077 45.6107 100 -50 1.051 100 1 381 0 0 0 0 0 2 0 0;
 122 774.509 122.802 300 -100 1.0435 100 1 800 0 0 0 0 0 2 0 0;
 125 95.3261 34.9203 100 -100 1.0528 100 1 184 0 0 0 0 0 2 0 0;
 126 200.185 -48.3634 100 -100 1.0528 100 1 317 0 0 0 0 0 2 0 0;
 128 115.635 51.6578 100 -25 1.0735 100 1 203 0 0 0 0 0 2 0 0;
 131 429.224 -58.4031 175 -100 1.0535 100 1 500 0 0 0 0 0 2 0 0;
 132 225.077 -35.2686 200 -100 1.0435 100 1 316 0 0 0 0 0 2 0 0;
 135 -0 -66.1689 200 -200 0.963 100 1 100 0 0 0 0 0 2 0 0;
 149 202.398 -13.7725 100 -100 0.929 100 1 305 0 0 0 0 0 2 0 0;
 150 -0 3.3289 500 -100 0.9829 100 1 100 0 0 0 0 0 2 0 0;
 155 251.319 32.1154 200 -45 1.0522 100 1 328 0 0 0 0 0 2 0 0;
 156 80.0007 34.2849 300 -100 1.0077 100 1 184 0 0 0 0 0 2 0 0;
 164 204.14 7.9463 200 -100 1.0522 100 1 300 0 0 0 0 0 2 0 0;
 165 1029.47 218.963 400 -100 1.065 100 1 1300 0 0 0 0 0 2 0 0;
 166 1099.6 263.989 400 -100 1.065 100 1 1300 0 0 0 0 0 2 0 0;
 169 435.475 -157.112 400 -300 1.0551 100 1 575 0 0 0 0 0 2 0 0;
 170 1808.1 313.489 1000 -1000 1.0435 100 1 2073 0 0 0 0 0 2 0 0;
 177 436.601 83.6668 260 -260 1.015 100 1 524 0 0 0 0 0 2 0 0;
 192 319.872 71.5868 200 -150 1.01 100 1 400 0 0 0 0 0 2 0 0;
 199 96.8158 51.7419 300 -60 1.008 100 1 200 0 0 0 0 0 2 0 0;
 200 467.961 108.91 320 -320 1 100 1 550 0 0 0 0 0 2 0 0;
 201 277.11 105.048 300 -300 1.05 100 1 350 0 0 0 0 0 2 0 0;
 206 312.494 72.9277 300 -300 1 100 1 403 0 0 0 0 0 2 0 0;
 209 336.127 34.0928 250 -250 1.04 100 1 445 0 0 0 0 0 2 0 0;
 212 275.125 -2.8123 500 -500 1 100 1 400 0 0 0 0 0 2 0 0;
 215 677.723 401.473 500 -300 1.0165 100 1 700 0 0 0 0 0 2 0 0;
 217 241.507 18.1431 300 -200 1.01 100 1 350 0 0 0 0 0 2 0 0;
 218 560.021 117.558 400 -400 1 100 1 650 0 0 0 0 0 2 0 0;
 220 634.37 -116.289 600 -600 1.05 100 1 700 0 0 0 0 0 2 0 0;
 221 187.312 26.8373 100 0 0.993 100 1 270 0 0 0 0 0 2 0 0;
 222 88.9782 53.0049 100 0 1.01 100 1 184 0 0 0 0 0 2 0 0;
 247 497.432 104.037 210 -210 1.0507 100 1 567 0 0 0 0 0 2 0 0;
 248 631.167 70.5392 280 -280 1.0507 100 1 723 0 0 0 0 0 2 0 0;
 249 1024.78 366.727 500 -420 1.0323 100 1 1310 0 0 0 0 0 2 0 0;
 250 254.432 44.7307 200 -100 1.0145 100 1 334 0 0 0 0 0 2 0 0;
 251 355.756 258.003 300 -224 1.0507 100 1 472 0 0 0 0 0 2 0 0;
 252 357.744 282.797 500 0 1.0507 100 1 430 0 0 0 0 0 2 0 0;
 253 175.146 -14.2234 120 -100 1.0507 100 1 285 0 0 0 0 0 2 0 0;
 254 470.791 97.1517 224 -224 1.029 100 1 510 0 0 0 0 0 2 0 0;
 255 415.816 85.1753 200 -200 1.05 100 1 600 0 0 0 0 0 2 0 0;
 256 38.8814 51.359 200 0 1.0145 100 1 137 0 0 0 0 0 2 0 0;
 257 462.214 -10.0071 100 -100 1.0507 100 1 2399.01 0 0 0 0 0 3 0 1;
 258 45.8285 25.6364 100 0 0.9967 100 1 145 0 0 0 0 0 2 0 0;
 259 171.088 83.005 200 -90 1.0212 100 1 265 0 0 0 0 0 2 0 0;
 260 362.205 83.284 200 -150 1.0145 100 1 500 0 0 0 0 0 2 0 0;
 261 452.329 176.351 300 0 1.0017 100 1 500 0 0 0 0 0 2 0 0;
 262 113.21 88.701 200 0 0.9893 100 1 216 0 0 0 0 0 2 0 0;
 263 1051.32 219.908 600 -100 1.0507 100 1 1392 0 0 0 0 0 2 0 0;
 264 744.039 310.326 400 -125 1.0507 100 1 800 0 0 0 0 0 2 0 0;
 265 538.345 -65.4917 300 -200 1.0145 100 1 653 0 0 0 0 0 2 0 0;
 267 0 -4.8422 2 -100 0.9945 100 1 100 0 0 0 0 0 2 0 0;
 292 0 10.5 100 -17.35 1 100 1 100 0 0 0 0 0 2 0 0;
 294 -0 9.4177 100 -12.8 1 100 1 100 0 0 0 0 0 2 0 0;
 295 49.1213 18.4566 100 -38 1 100 1 150 0 0 0 0 0 2 0 0;
 296 7.3671 3.4402 100 -6 1 100 1 108 0 0 0 0 0 2 0 0;
];

ps.shunt = [...
%bus P Q frac_S frac_Z status type value 
 1 92.2278 50.2129 1 0 1 0 3800 0;
 2 73.3066 19.6357 1 0 1 0 3200 0;
 3 20.074 0 1 0 1 0 6000 0;
 5 325.245 119.778 1 0 1 0 3100 0;
 6 115.95 39.6162 1 0 1 0 7600 0;
 8 61.1071 13.5794 1 0 1 0 3600 0;
 9 83.5542 37.4253 1 0 1 0 5600 0;
 10 150.352 32.4288 1 0 1 0 6100 0;
 11 78.7882 19.9344 1 0 1 0 2900 0;
 13 52.0576 8.9755 1 0 1 0 3300 0;
 14 156.657 58.7465 1 0 1 0 1600 0;
 15 122.837 22.2988 1 0 1 0 500 0;
 17 524.768 205.791 1 0 1 0 3900 0;
 19 671.1 133.111 1 0 1 0 3900 0;
 20 79.546 1.0331 1 0 1 0 1800 0;
 21 83.0975 23.5956 1 0 1 0 9700 0;
 22 18.0652 6.0217 1 0 1 0 9200 0;
 24 44.2783 11.8076 1 0 1 0 1100 0;
 25 29.5605 9.5016 1 0 1 0 400 0;
 26 78.0887 14.7124 1 0 1 0 2400 0;
 27 48.7234 5.3153 1 0 1 0 9200 0;
 31 66.608 25.0759 1 0 1 0 6500 0;
 32 168.022 19.5123 1 0 1 0 9800 0;
 34 46.3507 -21.1601 1 0 1 0 8100 0;
 35 104.659 0 1 0 1 0 4700 0;
 37 43.115 9.9496 1 0 1 0 5900 0;
 38 190.09 28.2698 1 0 1 0 5900 0;
 41 65.7717 13.3811 1 0 1 0 3400 0;
 42 39.5471 18.3267 1 0 1 0 4200 0;
 43 91.5263 25.8661 1 0 1 0 7400 0;
 44 -4.9464 4.9464 1 0 1 0 8900 0;
 45 61.795 28.3649 1 0 1 0 4700 0;
 46 66.2758 2.8816 1 0 1 0 3400 0;
 47 10.1873 1.0187 1 0 1 0 9100 0;
 48 23.4385 10.6539 1 0 1 0 7500 0;
 49 99.6515 20.337 1 0 1 0 3400 0;
 50 12.4712 0.8908 1 0 1 0 100 0;
 51 210.922 102.559 1 0 1 0 9000 0;
 53 215.216 104.29 1 0 1 0 6400 0;
 55 75.5216 32.3664 1 0 1 0 6700 0;
 58 59.5267 21.2595 1 0 1 0 7400 0;
 59 117.929 38.6319 1 0 1 0 2800 0;
 60 49.7744 16.5915 1 0 1 0 5300 0;
 61 236.867 75.0785 1 0 1 0 5400 0;
 63 216.795 111.524 1 0 1 0 3300 0;
 64 83.7879 31.7035 1 0 1 0 5800 0;
 66 53.976 15.743 1 0 1 0 8300 0;
 67 28.5402 7.1351 1 0 1 0 9100 0;
 69 39.1994 13.7728 1 0 1 0 3800 0;
 74 52.0437 0 1 0 1 0 6600 0;
 75 67.9661 0 1 0 1 0 2600 0;
 76 17.7388 0 1 0 1 0 9400 0;
 77 13.1813 0 1 0 1 0 2000 0;
 78 65.4011 0 1 0 1 0 3500 0;
 79 34.6332 0 1 0 1 0 6800 0;
 80 66.0936 0 1 0 1 0 1100 0;
 81 89.3106 0 1 0 1 0 8000 0;
 83 75.3448 0 1 0 1 0 4400 0;
 84 32.0103 0 1 0 1 0 4900 0;
 85 7.5067 0 1 0 1 0 4700 0;
 86 54.8515 0 1 0 1 0 3400 0;
 87 4.3756 0 1 0 1 0 300 0;
 88 118.092 0 1 0 1 0 5500 0;
 89 29.9421 0 1 0 1 0 9200 0;
 90 71.7482 0 1 0 1 0 7200 0;
 91 19.2326 0 1 0 1 0 3700 0;
 92 28.8583 0 1 0 1 0 7500 0;
 93 19.5529 0 1 0 1 0 1000 0;
 96 0 0 1 0 1 0 4200 0;
 97 16.3257 752.605 1 0 1 0 2700 0;
 99 734.396 203.211 1 0 1 0 5200 0;
 100 573.506 58.9585 1 0 1 0 100 0;
 101 265.743 13.6873 1 0 1 0 5700 0;
 102 68.8981 1.2366 1 0 1 0 2600 0;
 103 255.647 54.8476 1 0 1 0 4900 0;
 104 465.008 74.7012 1 0 1 0 4700 0;
 105 54.6113 4.8103 1 0 1 0 8400 0;
 106 407.038 39.5494 1 0 1 0 1100 0;
 114 162.117 39.8586 1 0 1 0 7300 0;
 115 58.5533 19.3056 1 0 1 0 7900 0;
 116 232.419 84.7787 1 0 1 0 1100 0;
 117 1083.89 143.781 1 0 1 0 5100 0;
 118 608.709 85.2193 1 0 1 0 8500 0;
 119 393.586 116.441 1 0 1 0 2100 0;
 120 125.125 50.0499 1 0 1 0 1500 0;
 121 65.1628 28.2565 1 0 1 0 1000 0;
 122 79.4616 31.5183 1 0 1 0 500 0;
 124 23.5309 13.7263 1 0 1 0 7700 0;
 127 66.6332 26.4418 1 0 1 0 9000 0;
 131 19.5572 10.3538 1 0 1 0 1000 0;
 133 72.1016 5.1501 1 0 1 0 1900 0;
 134 189.529 47.3822 1 0 1 0 3200 0;
 135 85.1197 56.7465 1 0 1 0 9000 0;
 136 107.77 -21.2049 1 0 1 0 4100 0;
 138 34.4554 17.2277 1 0 1 0 9200 0;
 140 34.7021 14.8723 1 0 1 0 6000 0;
 141 87.0348 24.5745 1 0 1 0 9300 0;
 142 0 0.3871 1 0 1 0 2900 0;
 143 0 0 1 0 1 0 600 0;
 145 0 0 1 0 1 0 2900 0;
 146 333.536 106.434 1 0 1 0 4500 0;
 149 388.043 165.107 1 0 1 0 5300 0;
 150 798.575 304.433 1 0 1 0 8700 0;
 151 24.4264 0 1 0 1 0 6100 0;
 152 155.459 40.8853 1 0 1 0 5100 0;
 154 196.042 92.4519 1 0 1 0 3500 0;
 155 4.0462 3.237 1 0 1 0 7700 0;
 156 31.8357 13.6439 1 0 1 0 6800 0;
 157 447.263 181.668 1 0 1 0 9700 0;
 158 65.0089 25.4765 1 0 1 0 5800 0;
 159 64.6914 45.889 1 0 1 0 7800 0;
 160 71.9527 0 1 0 1 0 1400 0;
 161 243.849 90.1643 1 0 1 0 2100 0;
 162 48.0057 4.8006 1 0 1 0 8800 0;
 163 141.491 17.1692 1 0 1 0 200 0;
 165 55.2296 22.4428 1 0 1 0 1000 0;
 166 61.6296 25.0435 1 0 1 0 9700 0;
 167 183.538 43.8241 1 0 1 0 1500 0;
 168 7.2052 2.0586 1 0 1 0 3900 0;
 169 0 0 1 0 1 0 7900 0;
 170 510.966 55.3808 1 0 1 0 7400 0;
 171 716.5 64.485 1 0 1 0 700 0;
 175 9.9593 2.9878 1 0 1 0 5900 0;
 176 50.7269 16.5157 1 0 1 0 3300 0;
 177 63.6969 20.9005 1 0 1 0 9800 0;
 178 36.3828 12.4741 1 0 1 0 7700 0;
 179 26.6546 11.8465 1 0 1 0 9300 0;
 180 40.7476 13.9138 1 0 1 0 9200 0;
 181 35.404 12.1119 1 0 1 0 5200 0;
 182 43.2434 14.4145 1 0 1 0 2700 0;
 183 73.9555 24.6518 1 0 1 0 8200 0;
 184 0 -5.6463 1 0 1 0 4900 0;
 185 12.1433 2.0239 1 0 1 0 4900 0;
 186 -17.8514 -12.071 1 0 1 0 3600 0;
 187 6.4131 1.8323 1 0 1 0 4100 0;
 188 40.7502 13.9409 1 0 1 0 5000 0;
 190 99.8931 7.2839 1 0 1 0 1900 0;
 193 24.6488 17.9264 1 0 1 0 8200 0;
 194 47.1062 26.0588 1 0 1 0 9400 0;
 195 213.033 127.093 1 0 1 0 6600 0;
 196 102.191 76.6434 1 0 1 0 400 0;
 197 129.859 95.164 1 0 1 0 4400 0;
 199 298.086 104.591 1 0 1 0 3000 0;
 200 153.781 62.9513 1 0 1 0 8600 0;
 201 302.807 173.56 1 0 1 0 500 0;
 202 493.36 267.429 1 0 1 0 1200 0;
 203 196.479 112.436 1 0 1 0 4100 0;
 204 411.845 40.18 1 0 1 0 8200 0;
 206 467.939 320.947 1 0 1 0 900 0;
 207 271.034 179.879 1 0 1 0 9100 0;
 208 96.9724 46.466 1 0 1 0 2300 0;
 210 139.772 94.0603 1 0 1 0 8300 0;
 211 395.526 126.251 1 0 1 0 4600 0;
 212 369.931 194.122 1 0 1 0 8100 0;
 213 533.784 227.698 1 0 1 0 7700 0;
 214 260.185 151.855 1 0 1 0 5800 0;
 217 260.887 152.44 1 0 1 0 7900 0;
 219 0 0 1 0 1 0 7100 0;
 222 7.4034 2.7763 1 0 1 0 1000 0;
 224 47.727 23.4723 1 0 1 0 2800 0;
 225 91.1118 39.0479 1 0 1 0 9200 0;
 226 62.8811 30.9251 1 0 1 0 6900 0;
 227 27.7998 13.4206 1 0 1 0 8100 0;
 228 29.1231 14.0594 1 0 1 0 9300 0;
 229 -21.3646 -15.7912 1 0 1 0 2600 0;
 230 -32.5317 -28.8952 1 0 1 0 700 0;
 231 115.415 -23.9201 1 0 1 0 9200 0;
 232 2.1748 -11.4174 1 0 1 0 6400 0;
 233 2.5343 -4.1182 1 0 1 0 4300 0;
 234 -13.5213 24.048 1 0 1 0 500 0;
 235 23.7704 -1.1548 1 0 1 0 3000 0;
 236 109.062 -26.196 1 0 1 0 4600 0;
 237 30.7536 -22.4359 1 0 1 0 5600 0;
 238 14.9194 2.6642 1 0 1 0 2500 0;
 239 -12.9654 -1.6353 1 0 1 0 1700 0;
 240 52.2155 17.9911 1 0 1 0 8100 0;
 241 29.2386 0.5927 1 0 1 0 5500 0;
 242 -129.213 87.1646 1 0 1 0 7600 0;
 243 83.0435 24.1489 1 0 1 0 1100 0;
 244 -113.037 38.6247 1 0 1 0 9900 0;
 
 
 267 3.8995 0 1 0 1 0 6600 0;
 268 2.2622 0.7847 1 0 1 0 3300 0;
 269 1.0335 0.3365 1 0 1 0 4600 0;
 
 274 4.8737 1.6006 1 0 1 0 9100 0;
 275 1.6238 0.5625 1 0 1 0 500 0;
 277 1.3263 0.4617 1 0 1 0 1700 0;
 278 0.4131 0.1469 1 0 1 0 7600 0;
 279 0.3963 0.1409 1 0 1 0 6600 0;
 280 1.5468 0.538 1 0 1 0 7300 0;
 281 1.2638 0.4364 1 0 1 0 500 0;
 282 1.9137 0.6581 1 0 1 0 4700 0;
 283 1.4298 0.4981 1 0 1 0 400 0;
 284 1.7518 0.6121 1 0 1 0 5400 0;
 285 3.8297 1.2639 1 0 1 0 4200 0;
 286 1.6795 0.5779 1 0 1 0 6300 0;
 287 2.6647 0.9192 1 0 1 0 4900 0;
 288 1.0702 0.3709 1 0 1 0 100 0;
 289 0.8722 0.3015 1 0 1 0 8700 0;
 290 1.3756 0.4471 1 0 1 0 5000 0;

 292 41.275 0 1 0 1 0 4300 0;
 293 26.0603 19.9796 1 0 1 0 5500 0;
 294 27.3604 0 1 0 1 0 7500 0;
 297 1.0364 0.3556 1 0 1 0 7400 0;
 298 0.9999 0.3431 1 0 1 0 4100 0;
 299 3.2892 1.082 1 0 1 0 7600 0;
 300 1.1682 0.4025 1 0 1 0 4000 0;
];

ps.areas = [...
 1 1;
];

ps.gencost = [...
 2 0 0 3 0 10 10;
 2 0 0 3 0 10 10;
 2 0 0 3 0 10 10;
 2 0 0 3 0 10 10;
 2 0 0 3 0 10 10;
 2 0 0 3 0 0.26 0.26;
 2 0 0 3 0 0.606 0.61;
 2 0 0 3 0 0.333 0.33;
 2 0 0 3 0 1.282 1.28;
 2 0 0 3 0 0.787 0.79;
 2 0 0 3 0 0.052 0.05;
 2 0 0 3 0 0.4 0.4;
 2 0 0 3 0 10 10;
 2 0 0 3 0 10 10;
 2 0 0 3 0 0.344 0.34;
 2 0 0 3 0 0.142 0.14;
 2 0 0 3 0 1.064 1.06;
 2 0 0 3 0 0.441 0.44;
 2 0 0 3 0 0.885 0.88;
 2 0 0 3 0 0.262 0.26;
 2 0 0 3 0 0.442 0.44;
 2 0 0 3 0 10 10;
 2 0 0 3 0 0.465 0.47;
 2 0 0 3 0 10 10;
 2 0 0 3 0 0.42 0.42;
 2 0 0 3 0 1.064 1.06;
 2 0 0 3 0 0.476 0.48;
 2 0 0 3 0 0.083 0.08;
 2 0 0 3 0 0.083 0.08;
 2 0 0 3 0 0.206 0.21;
 2 0 0 3 0 0.05 0.05;
 2 0 0 3 0 0.23 0.23;
 2 0 0 3 0 0.355 0.35;
 2 0 0 3 0 0.909 0.91;
 2 0 0 3 0 0.217 0.22;
 2 0 0 3 0 0.385 0.38;
 2 0 0 3 0 0.319 0.32;
 2 0 0 3 0 0.282 0.28;
 2 0 0 3 0 0.323 0.32;
 2 0 0 3 0 0.164 0.16;
 2 0 0 3 0 0.385 0.38;
 2 0 0 3 0 0.179 0.18;
 2 0 0 3 0 0.171 0.17;
 2 0 0 3 0 0.556 0.56;
 2 0 0 3 0 1.064 1.06;
 2 0 0 3 0 0.21 0.21;
 2 0 0 3 0 0.158 0.16;
 2 0 0 3 0 0.082 0.08;
 2 0 0 3 0 0.41 0.41;
 2 0 0 3 0 0.262 0.26;
 2 0 0 3 0 0.294 0.29;
 2 0 0 3 0 0.513 0.51;
 2 0 0 3 0 0.238 0.24;
 2 0 0 3 0 0.196 0.2;
 2 0 0 3 0 2.128 2.13;
 2 0 0 3 0 10 10;
 2 0 0 3 0 1.818 1.82;
 2 0 0 3 0 0.571 0.57;
 2 0 0 3 0 0.244 0.24;
 2 0 0 3 0 0.244 0.24;
 2 0 0 3 0 0.794 0.79;
 2 0 0 3 0 0.077 0.08;
 2 0 0 3 0 0.141 0.14;
 2 0 0 3 0 0.178 0.18;
 2 0 0 3 0 10 10;
 2 0 0 3 0 10 10;
 2 0 0 3 0 10 10;
 2 0 0 3 0 1.667 1.67;
 2 0 0 3 0 5.556 5.56;
];

